molecule_00001
  rDOCK(R)          3D
libRbt.so/2013.1/901 2013/11/27
 11 11  0  0  0  0  0  0  0  0999 V2000
   -4.0074   -3.5833   -1.3677 C   0  0  0  0  0  0
   -5.1147   -4.1842   -1.9878 C   0  0  0  0  0  0
   -5.5062   -3.7968   -3.2699 C   0  0  0  0  0  0
   -4.8053   -2.7981   -3.9418 C   0  0  0  0  0  0
   -3.7291   -2.1665   -3.3232 C   0  0  0  0  0  0
   -3.3361   -2.5489   -2.0403 C   0  0  0  0  0  0
   -3.5229   -4.0671   -0.0247 C   0  0  0  0  0  0
   -4.2783   -3.5077    1.2037 N   0  3  0  0  0  0
   -5.7407   -3.9309    1.1854 C   0  0  0  0  0  0
   -3.6237   -4.0647    2.4624 C   0  0  0  0  0  0
   -4.2014   -1.9875    1.2431 C   0  0  0  0  0  0
  1  2  1  0  0  0
  1  6  2  0  0  0
  1  7  1  0  0  0
  2  3  2  0  0  0
  3  4  1  0  0  0
  4  5  2  0  0  0
  5  6  1  0  0  0
  7  8  1  0  0  0
  8  9  1  0  0  0
  8 10  1  0  0  0
  8 11  1  0  0  0
M  END
>  <CHROM.1>
-82.51138556,62.65163046,-4.35457772,-3.33481346,-0.77192110,-1.64803016
0.71599999,1.73238416

>  <Name>
molecule_00001

>  <RI>
3.64353e+07

>  <Rbt.Current_Directory>
/home/fstefaniak/gitlab/AnnapuRNA-release/webserver/metaRNAligand/input/20190314-test/outputs

>  <Rbt.Executable>
rbdock ($Id: //depot/dev/client3/rdock/2013.1/src/exe/rbdock.cxx#4 $)

>  <Rbt.Library>
libRbt.so (2013.1, Build901 2013/11/27)

>  <Rbt.Parameter_File>
/home/fstefaniak/progs/rDock//data/scripts/dock.prm

>  <Rbt.Receptor>
rdock.prm

>  <SCORE>
-4.35041

>  <SCORE.INTER>
-4.34946

>  <SCORE.INTER.CONST>
1

>  <SCORE.INTER.POLAR>
0

>  <SCORE.INTER.REPUL>
0

>  <SCORE.INTER.ROT>
2

>  <SCORE.INTER.VDW>
-11.7495

>  <SCORE.INTER.norm>
-0.395405

>  <SCORE.INTRA>
-0.000946358

>  <SCORE.INTRA.DIHEDRAL>
-0.0586072

>  <SCORE.INTRA.DIHEDRAL.0>
0.756869

>  <SCORE.INTRA.POLAR>
0

>  <SCORE.INTRA.POLAR.0>
0

>  <SCORE.INTRA.REPUL>
0

>  <SCORE.INTRA.REPUL.0>
0

>  <SCORE.INTRA.VDW>
0.0283572

>  <SCORE.INTRA.VDW.0>
-0.147789

>  <SCORE.INTRA.norm>
-8.60326e-05

>  <SCORE.RESTR>
0

>  <SCORE.RESTR.CAVITY>
0

>  <SCORE.RESTR.norm>
0

>  <SCORE.SYSTEM>
0

>  <SCORE.SYSTEM.CONST>
0

>  <SCORE.SYSTEM.DIHEDRAL>
0

>  <SCORE.SYSTEM.norm>
0

>  <SCORE.heavy>
11

>  <SCORE.norm>
-0.395491

$$$$
molecule_00001
  rDOCK(R)          3D
libRbt.so/2013.1/901 2013/11/27
 11 11  0  0  0  0  0  0  0  0999 V2000
   -5.0959   -2.8995   -1.0111 C   0  0  0  0  0  0
   -4.9063   -2.7818   -2.3975 C   0  0  0  0  0  0
   -3.6594   -2.4294   -2.9153 C   0  0  0  0  0  0
   -2.5922   -2.1790   -2.0560 C   0  0  0  0  0  0
   -2.7762   -2.2541   -0.6774 C   0  0  0  0  0  0
   -4.0220   -2.6033   -0.1554 C   0  0  0  0  0  0
   -6.4133   -3.3747   -0.4535 C   0  0  0  0  0  0
   -6.6524   -4.9020   -0.5031 N   0  3  0  0  0  0
   -5.5653   -5.6504    0.2562 C   0  0  0  0  0  0
   -7.9972   -5.1973    0.1507 C   0  0  0  0  0  0
   -6.6869   -5.4004   -1.9414 C   0  0  0  0  0  0
  1  2  1  0  0  0
  1  6  2  0  0  0
  1  7  1  0  0  0
  2  3  2  0  0  0
  3  4  1  0  0  0
  4  5  2  0  0  0
  5  6  1  0  0  0
  7  8  1  0  0  0
  8  9  1  0  0  0
  8 10  1  0  0  0
  8 11  1  0  0  0
M  END
>  <CHROM.1>
78.88198439,58.38813867,-5.20861454,-3.69108848,-1.03433557,-0.37724193,0.61163947
1.73504419

>  <Name>
molecule_00001

>  <RI>
3.64353e+07

>  <Rbt.Current_Directory>
/home/fstefaniak/gitlab/AnnapuRNA-release/webserver/metaRNAligand/input/20190314-test/outputs

>  <Rbt.Executable>
rbdock ($Id: //depot/dev/client3/rdock/2013.1/src/exe/rbdock.cxx#4 $)

>  <Rbt.Library>
libRbt.so (2013.1, Build901 2013/11/27)

>  <Rbt.Parameter_File>
/home/fstefaniak/progs/rDock//data/scripts/dock.prm

>  <Rbt.Receptor>
rdock.prm

>  <SCORE>
-5.61815

>  <SCORE.INTER>
-5.69454

>  <SCORE.INTER.CONST>
1

>  <SCORE.INTER.POLAR>
0

>  <SCORE.INTER.REPUL>
0

>  <SCORE.INTER.ROT>
2

>  <SCORE.INTER.VDW>
-13.0945

>  <SCORE.INTER.norm>
-0.517686

>  <SCORE.INTRA>
0.0763905

>  <SCORE.INTRA.DIHEDRAL>
0.00757896

>  <SCORE.INTRA.DIHEDRAL.0>
0.756869

>  <SCORE.INTRA.POLAR>
0

>  <SCORE.INTRA.POLAR.0>
0

>  <SCORE.INTRA.REPUL>
0

>  <SCORE.INTRA.REPUL.0>
0

>  <SCORE.INTRA.VDW>
0.072601

>  <SCORE.INTRA.VDW.0>
-0.147789

>  <SCORE.INTRA.norm>
0.00694459

>  <SCORE.RESTR>
0

>  <SCORE.RESTR.CAVITY>
0

>  <SCORE.RESTR.norm>
0

>  <SCORE.SYSTEM>
0

>  <SCORE.SYSTEM.CONST>
0

>  <SCORE.SYSTEM.DIHEDRAL>
0

>  <SCORE.SYSTEM.norm>
0

>  <SCORE.heavy>
11

>  <SCORE.norm>
-0.510741

$$$$
molecule_00002
  rDOCK(R)          3D
libRbt.so/2013.1/901 2013/11/27
  7  7  0  0  0  0  0  0  0  0999 V2000
   -4.7627   -3.4775   -1.5200 C   0  0  0  0  0  0
   -5.4766   -3.6996   -2.6937 C   0  0  0  0  0  0
   -5.0505   -3.0931   -3.8683 C   0  0  0  0  0  0
   -3.9626   -2.3051   -3.8579 N   0  3  0  0  0  0
   -3.2534   -2.0719   -2.7413 C   0  0  0  0  0  0
   -3.6397   -2.6559   -1.5417 C   0  0  0  0  0  0
   -3.6640   -1.8674   -4.7308 H   0  0  0  0  0  0
  1  2  1  0  0  0
  1  6  2  0  0  0
  2  3  2  0  0  0
  3  4  1  0  0  0
  4  5  2  0  0  0
  4  7  1  0  0  0
  5  6  1  0  0  0
M  END
>  <CHROM.1>
-4.34397373,-2.86393085,-2.74356124,-1.93700532,-0.61380021,-1.32322264

>  <Name>
molecule_00002

>  <RI>
3.64353e+07

>  <Rbt.Current_Directory>
/home/fstefaniak/gitlab/AnnapuRNA-release/webserver/metaRNAligand/input/20190314-test/outputs

>  <Rbt.Executable>
rbdock ($Id: //depot/dev/client3/rdock/2013.1/src/exe/rbdock.cxx#4 $)

>  <Rbt.Library>
libRbt.so (2013.1, Build901 2013/11/27)

>  <Rbt.Parameter_File>
/home/fstefaniak/progs/rDock//data/scripts/dock.prm

>  <Rbt.Receptor>
rdock.prm

>  <SCORE>
-10.4358

>  <SCORE.INTER>
-10.4358

>  <SCORE.INTER.CONST>
1

>  <SCORE.INTER.POLAR>
-1.7488

>  <SCORE.INTER.REPUL>
0

>  <SCORE.INTER.ROT>
0

>  <SCORE.INTER.VDW>
-9.88993

>  <SCORE.INTER.norm>
-1.73931

>  <SCORE.INTRA>
0

>  <SCORE.INTRA.DIHEDRAL>
0

>  <SCORE.INTRA.DIHEDRAL.0>
0

>  <SCORE.INTRA.POLAR>
0

>  <SCORE.INTRA.POLAR.0>
0

>  <SCORE.INTRA.REPUL>
0

>  <SCORE.INTRA.REPUL.0>
0

>  <SCORE.INTRA.VDW>
0

>  <SCORE.INTRA.VDW.0>
0

>  <SCORE.INTRA.norm>
0

>  <SCORE.RESTR>
0

>  <SCORE.RESTR.CAVITY>
0

>  <SCORE.RESTR.norm>
0

>  <SCORE.SYSTEM>
0

>  <SCORE.SYSTEM.CONST>
0

>  <SCORE.SYSTEM.DIHEDRAL>
0

>  <SCORE.SYSTEM.norm>
0

>  <SCORE.heavy>
6

>  <SCORE.norm>
-1.73931

$$$$
molecule_00006
  rDOCK(R)          3D
libRbt.so/2013.1/901 2013/11/27
  7  7  0  0  0  0  0  0  0  0999 V2000
   -3.5161   -2.5330   -1.5929 C   0  0  0  0  0  0
   -3.4652   -2.1867   -2.9435 C   0  0  0  0  0  0
   -4.4146   -2.7043   -3.8265 C   0  0  0  0  0  0
   -5.4087   -3.5639   -3.3587 C   0  0  0  0  0  0
   -5.4561   -3.9078   -2.0075 C   0  0  0  0  0  0
   -4.5087   -3.3924   -1.1211 C   0  0  0  0  0  0
   -2.1039   -1.7637   -0.2754 I   0  0  0  0  0  0
  1  2  1  0  0  0
  1  6  2  0  0  0
  1  7  1  0  0  0
  2  3  2  0  0  0
  3  4  1  0  0  0
  4  5  2  0  0  0
  5  6  1  0  0  0
M  END
>  <CHROM.1>
-2.99967594,-2.25166156,-1.11112485,-2.57626998,0.63606033,1.79488397

>  <Name>
molecule_00006

>  <RI>
3.64353e+07

>  <Rbt.Current_Directory>
/home/fstefaniak/gitlab/AnnapuRNA-release/webserver/metaRNAligand/input/20190314-test/outputs

>  <Rbt.Executable>
rbdock ($Id: //depot/dev/client3/rdock/2013.1/src/exe/rbdock.cxx#4 $)

>  <Rbt.Library>
libRbt.so (2013.1, Build901 2013/11/27)

>  <Rbt.Parameter_File>
/home/fstefaniak/progs/rDock//data/scripts/dock.prm

>  <Rbt.Receptor>
rdock.prm

>  <SCORE>
-6.64281

>  <SCORE.INTER>
-6.64281

>  <SCORE.INTER.CONST>
1

>  <SCORE.INTER.POLAR>
0

>  <SCORE.INTER.REPUL>
0

>  <SCORE.INTER.ROT>
0

>  <SCORE.INTER.VDW>
-12.0428

>  <SCORE.INTER.norm>
-0.948973

>  <SCORE.INTRA>
0

>  <SCORE.INTRA.DIHEDRAL>
0

>  <SCORE.INTRA.DIHEDRAL.0>
0

>  <SCORE.INTRA.POLAR>
0

>  <SCORE.INTRA.POLAR.0>
0

>  <SCORE.INTRA.REPUL>
0

>  <SCORE.INTRA.REPUL.0>
0

>  <SCORE.INTRA.VDW>
0

>  <SCORE.INTRA.VDW.0>
0

>  <SCORE.INTRA.norm>
0

>  <SCORE.RESTR>
0

>  <SCORE.RESTR.CAVITY>
0

>  <SCORE.RESTR.norm>
0

>  <SCORE.SYSTEM>
0

>  <SCORE.SYSTEM.CONST>
0

>  <SCORE.SYSTEM.DIHEDRAL>
0

>  <SCORE.SYSTEM.norm>
0

>  <SCORE.heavy>
7

>  <SCORE.norm>
-0.948973

$$$$